$ Spice netlist generated by v2lvs
$ v2020.1_25.14    Mon Feb 3 16:40:08 PST 2020
*.BUSDELIMITER [ 

.SUBCKT datapath__0_27 p_0[23] p_0[22] p_0[21] p_0[20] p_0[19] p_0[18] p_0[17] 
+ p_0[16] p_0[15] p_0[14] p_0[13] p_0[12] p_0[11] p_0[10] p_0[9] p_0[8] p_0[7] 
+ p_0[6] p_0[5] p_0[4] p_0[3] p_0[2] p_0[1] p_0[0] outToAdd[23] outToAdd[22] 
+ outToAdd[21] outToAdd[20] outToAdd[19] outToAdd[18] outToAdd[17] outToAdd[16] 
+ outToAdd[15] outToAdd[14] outToAdd[13] outToAdd[12] outToAdd[11] outToAdd[10] 
+ outToAdd[9] outToAdd[8] outToAdd[7] outToAdd[6] outToAdd[5] outToAdd[4] 
+ outToAdd[3] outToAdd[2] outToAdd[1] outToAdd[0] 
Xi_46 INV_X1 $PINS ZN=n_23 A=outToAdd[19] 
Xi_45 INV_X1 $PINS ZN=n_22 A=outToAdd[15] 
Xi_44 INV_X1 $PINS ZN=n_21 A=outToAdd[11] 
Xi_43 OR3_X1 $PINS ZN=n_20 A1=outToAdd[2] A2=outToAdd[1] A3=outToAdd[0] 
Xi_42 OR2_X1 $PINS ZN=n_19 A1=n_20 A2=outToAdd[3] 
Xi_41 OR2_X1 $PINS ZN=n_18 A1=n_19 A2=outToAdd[4] 
Xi_40 OR3_X1 $PINS ZN=n_17 A1=n_18 A2=outToAdd[5] A3=outToAdd[6] 
Xi_39 OR2_X1 $PINS ZN=n_16 A1=n_17 A2=outToAdd[7] 
Xi_38 OR3_X1 $PINS ZN=n_15 A1=n_16 A2=outToAdd[8] A3=outToAdd[9] 
Xi_37 NOR2_X1 $PINS ZN=n_14 A1=n_15 A2=outToAdd[10] 
Xi_36 NAND2_X1 $PINS ZN=n_13 A1=n_14 A2=n_21 
Xi_35 OR2_X1 $PINS ZN=n_12 A1=n_13 A2=outToAdd[12] 
Xi_34 NOR2_X1 $PINS ZN=n_11 A1=n_12 A2=outToAdd[13] 
Xi_33 NOR3_X1 $PINS ZN=n_10 A1=n_12 A2=outToAdd[13] A3=outToAdd[14] 
Xi_32 NAND2_X1 $PINS ZN=n_9 A1=n_10 A2=n_22 
Xi_31 OR2_X1 $PINS ZN=n_8 A1=n_9 A2=outToAdd[16] 
Xi_30 NOR2_X1 $PINS ZN=n_7 A1=n_8 A2=outToAdd[17] 
Xi_29 NOR3_X1 $PINS ZN=n_6 A1=n_8 A2=outToAdd[17] A3=outToAdd[18] 
Xi_28 NAND2_X1 $PINS ZN=n_5 A1=n_6 A2=n_23 
Xi_27 OR2_X1 $PINS ZN=n_4 A1=n_5 A2=outToAdd[20] 
Xi_26 NOR2_X1 $PINS ZN=n_3 A1=n_4 A2=outToAdd[21] 
Xi_25 NOR3_X1 $PINS ZN=p_0[23] A1=n_4 A2=outToAdd[21] A3=outToAdd[22] 
Xi_24 XNOR2_X1 $PINS ZN=p_0[22] A=outToAdd[22] B=n_3 
Xi_23 XOR2_X1 $PINS Z=p_0[21] A=outToAdd[21] B=n_4 
Xi_22 XOR2_X1 $PINS Z=p_0[20] A=outToAdd[20] B=n_5 
Xi_21 XNOR2_X1 $PINS ZN=p_0[19] A=outToAdd[19] B=n_6 
Xi_20 XNOR2_X1 $PINS ZN=p_0[18] A=outToAdd[18] B=n_7 
Xi_19 XOR2_X1 $PINS Z=p_0[17] A=outToAdd[17] B=n_8 
Xi_18 XOR2_X1 $PINS Z=p_0[16] A=outToAdd[16] B=n_9 
Xi_17 XNOR2_X1 $PINS ZN=p_0[15] A=outToAdd[15] B=n_10 
Xi_16 XNOR2_X1 $PINS ZN=p_0[14] A=outToAdd[14] B=n_11 
Xi_15 XOR2_X1 $PINS Z=p_0[13] A=outToAdd[13] B=n_12 
Xi_14 XOR2_X1 $PINS Z=p_0[12] A=outToAdd[12] B=n_13 
Xi_13 XNOR2_X1 $PINS ZN=p_0[11] A=outToAdd[11] B=n_14 
Xi_12 XOR2_X1 $PINS Z=p_0[10] A=outToAdd[10] B=n_15 
Xi_11 OAI21_X1 $PINS ZN=n_2 A=outToAdd[9] B1=n_16 B2=outToAdd[8] 
Xi_10 AND2_X1 $PINS ZN=p_0[9] A1=n_15 A2=n_2 
Xi_9 XOR2_X1 $PINS Z=p_0[8] A=outToAdd[8] B=n_16 
Xi_8 XOR2_X1 $PINS Z=p_0[7] A=outToAdd[7] B=n_17 
Xi_7 OAI21_X1 $PINS ZN=n_1 A=outToAdd[6] B1=n_18 B2=outToAdd[5] 
Xi_6 AND2_X1 $PINS ZN=p_0[6] A1=n_17 A2=n_1 
Xi_5 XOR2_X1 $PINS Z=p_0[5] A=outToAdd[5] B=n_18 
Xi_4 XOR2_X1 $PINS Z=p_0[4] A=outToAdd[4] B=n_19 
Xi_3 XOR2_X1 $PINS Z=p_0[3] A=outToAdd[3] B=n_20 
Xi_2 OAI21_X1 $PINS ZN=n_0 A=outToAdd[2] B1=outToAdd[1] B2=outToAdd[0] 
Xi_1 AND2_X1 $PINS ZN=p_0[2] A1=n_20 A2=n_0 
Xi_0 XOR2_X1 $PINS Z=p_0[1] A=outToAdd[1] B=outToAdd[0] 
.ENDS

.SUBCKT datapath__0_24 p_0[23] p_0[22] p_0[21] p_0[20] p_0[19] p_0[18] p_0[17] 
+ p_0[16] p_0[15] p_0[14] p_0[13] p_0[12] p_0[11] p_0[10] p_0[9] p_0[8] p_0[7] 
+ p_0[6] p_0[5] p_0[4] p_0[3] p_0[2] p_0[1] p_0[0] shiftedToAdd[23] 
+ shiftedToAdd[22] shiftedToAdd[21] shiftedToAdd[20] shiftedToAdd[19] 
+ shiftedToAdd[18] shiftedToAdd[17] shiftedToAdd[16] shiftedToAdd[15] 
+ shiftedToAdd[14] shiftedToAdd[13] shiftedToAdd[12] shiftedToAdd[11] 
+ shiftedToAdd[10] shiftedToAdd[9] shiftedToAdd[8] shiftedToAdd[7] 
+ shiftedToAdd[6] shiftedToAdd[5] shiftedToAdd[4] shiftedToAdd[3] 
+ shiftedToAdd[2] shiftedToAdd[1] shiftedToAdd[0] 
Xi_46 INV_X1 $PINS ZN=n_23 A=shiftedToAdd[15] 
Xi_45 INV_X1 $PINS ZN=n_22 A=shiftedToAdd[11] 
Xi_44 OR3_X1 $PINS ZN=n_21 A1=shiftedToAdd[2] A2=shiftedToAdd[1] 
+ A3=shiftedToAdd[0] 
Xi_43 OR2_X1 $PINS ZN=n_20 A1=n_21 A2=shiftedToAdd[3] 
Xi_42 OR2_X1 $PINS ZN=n_19 A1=n_20 A2=shiftedToAdd[4] 
Xi_41 OR3_X1 $PINS ZN=n_18 A1=n_19 A2=shiftedToAdd[5] A3=shiftedToAdd[6] 
Xi_40 OR2_X1 $PINS ZN=n_17 A1=n_18 A2=shiftedToAdd[7] 
Xi_39 OR3_X1 $PINS ZN=n_16 A1=n_17 A2=shiftedToAdd[8] A3=shiftedToAdd[9] 
Xi_38 NOR2_X1 $PINS ZN=n_15 A1=n_16 A2=shiftedToAdd[10] 
Xi_37 NAND2_X1 $PINS ZN=n_14 A1=n_15 A2=n_22 
Xi_36 OR2_X1 $PINS ZN=n_13 A1=n_14 A2=shiftedToAdd[12] 
Xi_35 NOR2_X1 $PINS ZN=n_12 A1=n_13 A2=shiftedToAdd[13] 
Xi_34 NOR3_X1 $PINS ZN=n_11 A1=n_13 A2=shiftedToAdd[13] A3=shiftedToAdd[14] 
Xi_33 NAND2_X1 $PINS ZN=n_10 A1=n_11 A2=n_23 
Xi_32 OR2_X1 $PINS ZN=n_9 A1=n_10 A2=shiftedToAdd[16] 
Xi_31 OR2_X1 $PINS ZN=n_8 A1=n_9 A2=shiftedToAdd[17] 
Xi_30 OR3_X1 $PINS ZN=n_7 A1=n_8 A2=shiftedToAdd[18] A3=shiftedToAdd[19] 
Xi_29 NOR2_X1 $PINS ZN=n_6 A1=n_7 A2=shiftedToAdd[20] 
Xi_28 NOR3_X1 $PINS ZN=n_5 A1=n_7 A2=shiftedToAdd[20] A3=shiftedToAdd[21] 
Xi_27 NOR4_X1 $PINS ZN=n_4 A1=n_7 A2=shiftedToAdd[20] A3=shiftedToAdd[21] 
+ A4=shiftedToAdd[22] 
Xi_26 XNOR2_X1 $PINS ZN=p_0[23] A=shiftedToAdd[23] B=n_4 
Xi_25 XNOR2_X1 $PINS ZN=p_0[22] A=shiftedToAdd[22] B=n_5 
Xi_24 XNOR2_X1 $PINS ZN=p_0[21] A=shiftedToAdd[21] B=n_6 
Xi_23 XOR2_X1 $PINS Z=p_0[20] A=shiftedToAdd[20] B=n_7 
Xi_22 OAI21_X1 $PINS ZN=n_3 A=shiftedToAdd[19] B1=n_8 B2=shiftedToAdd[18] 
Xi_21 AND2_X1 $PINS ZN=p_0[19] A1=n_7 A2=n_3 
Xi_20 XOR2_X1 $PINS Z=p_0[18] A=shiftedToAdd[18] B=n_8 
Xi_19 XOR2_X1 $PINS Z=p_0[17] A=shiftedToAdd[17] B=n_9 
Xi_18 XOR2_X1 $PINS Z=p_0[16] A=shiftedToAdd[16] B=n_10 
Xi_17 XNOR2_X1 $PINS ZN=p_0[15] A=shiftedToAdd[15] B=n_11 
Xi_16 XNOR2_X1 $PINS ZN=p_0[14] A=shiftedToAdd[14] B=n_12 
Xi_15 XOR2_X1 $PINS Z=p_0[13] A=shiftedToAdd[13] B=n_13 
Xi_14 XOR2_X1 $PINS Z=p_0[12] A=shiftedToAdd[12] B=n_14 
Xi_13 XNOR2_X1 $PINS ZN=p_0[11] A=shiftedToAdd[11] B=n_15 
Xi_12 XOR2_X1 $PINS Z=p_0[10] A=shiftedToAdd[10] B=n_16 
Xi_11 OAI21_X1 $PINS ZN=n_2 A=shiftedToAdd[9] B1=n_17 B2=shiftedToAdd[8] 
Xi_10 AND2_X1 $PINS ZN=p_0[9] A1=n_16 A2=n_2 
Xi_9 XOR2_X1 $PINS Z=p_0[8] A=shiftedToAdd[8] B=n_17 
Xi_8 XOR2_X1 $PINS Z=p_0[7] A=shiftedToAdd[7] B=n_18 
Xi_7 OAI21_X1 $PINS ZN=n_1 A=shiftedToAdd[6] B1=n_19 B2=shiftedToAdd[5] 
Xi_6 AND2_X1 $PINS ZN=p_0[6] A1=n_18 A2=n_1 
Xi_5 XOR2_X1 $PINS Z=p_0[5] A=shiftedToAdd[5] B=n_19 
Xi_4 XOR2_X1 $PINS Z=p_0[4] A=shiftedToAdd[4] B=n_20 
Xi_3 XOR2_X1 $PINS Z=p_0[3] A=shiftedToAdd[3] B=n_21 
Xi_2 OAI21_X1 $PINS ZN=n_0 A=shiftedToAdd[2] B1=shiftedToAdd[1] 
+ B2=shiftedToAdd[0] 
Xi_1 AND2_X1 $PINS ZN=p_0[2] A1=n_21 A2=n_0 
Xi_0 XOR2_X1 $PINS Z=p_0[1] A=shiftedToAdd[1] B=shiftedToAdd[0] 
.ENDS

.SUBCKT datapath__0_11 p_0[23] p_0[22] p_0[21] p_0[20] p_0[19] p_0[18] p_0[17] 
+ p_0[16] p_0[15] p_0[14] p_0[13] p_0[12] p_0[11] p_0[10] p_0[9] p_0[8] p_0[7] 
+ p_0[6] p_0[5] p_0[4] p_0[3] p_0[2] p_0[1] p_0[0] unNormalizedSum[23] 
+ unNormalizedSum[22] unNormalizedSum[21] unNormalizedSum[20] 
+ unNormalizedSum[19] unNormalizedSum[18] unNormalizedSum[17] 
+ unNormalizedSum[16] unNormalizedSum[15] unNormalizedSum[14] 
+ unNormalizedSum[13] unNormalizedSum[12] unNormalizedSum[11] 
+ unNormalizedSum[10] unNormalizedSum[9] unNormalizedSum[8] unNormalizedSum[7] 
+ unNormalizedSum[6] unNormalizedSum[5] unNormalizedSum[4] unNormalizedSum[3] 
+ unNormalizedSum[2] unNormalizedSum[1] unNormalizedSum[0] 
Xi_46 INV_X1 $PINS ZN=n_23 A=unNormalizedSum[15] 
Xi_45 INV_X1 $PINS ZN=n_22 A=unNormalizedSum[11] 
Xi_44 OR3_X1 $PINS ZN=n_21 A1=unNormalizedSum[2] A2=unNormalizedSum[1] 
+ A3=unNormalizedSum[0] 
Xi_43 OR2_X1 $PINS ZN=n_20 A1=n_21 A2=unNormalizedSum[3] 
Xi_42 OR2_X1 $PINS ZN=n_19 A1=n_20 A2=unNormalizedSum[4] 
Xi_41 OR3_X1 $PINS ZN=n_18 A1=n_19 A2=unNormalizedSum[5] A3=unNormalizedSum[6] 
Xi_40 OR2_X1 $PINS ZN=n_17 A1=n_18 A2=unNormalizedSum[7] 
Xi_39 OR3_X1 $PINS ZN=n_16 A1=n_17 A2=unNormalizedSum[8] A3=unNormalizedSum[9] 
Xi_38 NOR2_X1 $PINS ZN=n_15 A1=n_16 A2=unNormalizedSum[10] 
Xi_37 NAND2_X1 $PINS ZN=n_14 A1=n_15 A2=n_22 
Xi_36 OR2_X1 $PINS ZN=n_13 A1=n_14 A2=unNormalizedSum[12] 
Xi_35 NOR2_X1 $PINS ZN=n_12 A1=n_13 A2=unNormalizedSum[13] 
Xi_34 NOR3_X1 $PINS ZN=n_11 A1=n_13 A2=unNormalizedSum[13] 
+ A3=unNormalizedSum[14] 
Xi_33 NAND2_X1 $PINS ZN=n_10 A1=n_11 A2=n_23 
Xi_32 OR2_X1 $PINS ZN=n_9 A1=n_10 A2=unNormalizedSum[16] 
Xi_31 OR2_X1 $PINS ZN=n_8 A1=n_9 A2=unNormalizedSum[17] 
Xi_30 OR3_X1 $PINS ZN=n_7 A1=n_8 A2=unNormalizedSum[18] A3=unNormalizedSum[19] 
Xi_29 NOR2_X1 $PINS ZN=n_6 A1=n_7 A2=unNormalizedSum[20] 
Xi_28 NOR3_X1 $PINS ZN=n_5 A1=n_7 A2=unNormalizedSum[20] A3=unNormalizedSum[21] 
Xi_27 NOR4_X1 $PINS ZN=n_4 A1=n_7 A2=unNormalizedSum[20] A3=unNormalizedSum[21] 
+ A4=unNormalizedSum[22] 
Xi_26 XNOR2_X1 $PINS ZN=p_0[23] A=unNormalizedSum[23] B=n_4 
Xi_25 XNOR2_X1 $PINS ZN=p_0[22] A=unNormalizedSum[22] B=n_5 
Xi_24 XNOR2_X1 $PINS ZN=p_0[21] A=unNormalizedSum[21] B=n_6 
Xi_23 XOR2_X1 $PINS Z=p_0[20] A=unNormalizedSum[20] B=n_7 
Xi_22 OAI21_X1 $PINS ZN=n_3 A=unNormalizedSum[19] B1=n_8 B2=unNormalizedSum[18] 
Xi_21 AND2_X1 $PINS ZN=p_0[19] A1=n_7 A2=n_3 
Xi_20 XOR2_X1 $PINS Z=p_0[18] A=unNormalizedSum[18] B=n_8 
Xi_19 XOR2_X1 $PINS Z=p_0[17] A=unNormalizedSum[17] B=n_9 
Xi_18 XOR2_X1 $PINS Z=p_0[16] A=unNormalizedSum[16] B=n_10 
Xi_17 XNOR2_X1 $PINS ZN=p_0[15] A=unNormalizedSum[15] B=n_11 
Xi_16 XNOR2_X1 $PINS ZN=p_0[14] A=unNormalizedSum[14] B=n_12 
Xi_15 XOR2_X1 $PINS Z=p_0[13] A=unNormalizedSum[13] B=n_13 
Xi_14 XOR2_X1 $PINS Z=p_0[12] A=unNormalizedSum[12] B=n_14 
Xi_13 XNOR2_X1 $PINS ZN=p_0[11] A=unNormalizedSum[11] B=n_15 
Xi_12 XOR2_X1 $PINS Z=p_0[10] A=unNormalizedSum[10] B=n_16 
Xi_11 OAI21_X1 $PINS ZN=n_2 A=unNormalizedSum[9] B1=n_17 B2=unNormalizedSum[8] 
Xi_10 AND2_X1 $PINS ZN=p_0[9] A1=n_16 A2=n_2 
Xi_9 XOR2_X1 $PINS Z=p_0[8] A=unNormalizedSum[8] B=n_17 
Xi_8 XOR2_X1 $PINS Z=p_0[7] A=unNormalizedSum[7] B=n_18 
Xi_7 OAI21_X1 $PINS ZN=n_1 A=unNormalizedSum[6] B1=n_19 B2=unNormalizedSum[5] 
Xi_6 AND2_X1 $PINS ZN=p_0[6] A1=n_18 A2=n_1 
Xi_5 XOR2_X1 $PINS Z=p_0[5] A=unNormalizedSum[5] B=n_19 
Xi_4 XOR2_X1 $PINS Z=p_0[4] A=unNormalizedSum[4] B=n_20 
Xi_3 XOR2_X1 $PINS Z=p_0[3] A=unNormalizedSum[3] B=n_21 
Xi_2 OAI21_X1 $PINS ZN=n_0 A=unNormalizedSum[2] B1=unNormalizedSum[1] 
+ B2=unNormalizedSum[0] 
Xi_1 AND2_X1 $PINS ZN=p_0[2] A1=n_21 A2=n_0 
Xi_0 XOR2_X1 $PINS Z=p_0[1] A=unNormalizedSum[1] B=unNormalizedSum[0] 
.ENDS

.SUBCKT LZeros in[23] in[22] in[21] in[20] in[19] in[18] in[17] in[16] in[15] 
+ in[14] in[13] in[12] in[11] in[10] in[9] in[8] in[7] in[6] in[5] in[4] in[3] 
+ in[2] in[1] in[0] out[4] out[3] out[2] out[1] out[0] 
Xi_0_48 INV_X1 $PINS ZN=n_0_43 A=n_0_27 
Xi_0_47 INV_X1 $PINS ZN=n_0_42 A=in[19] 
Xi_0_46 INV_X1 $PINS ZN=n_0_41 A=in[13] 
Xi_0_45 INV_X1 $PINS ZN=n_0_40 A=in[12] 
Xi_0_44 INV_X1 $PINS ZN=n_0_39 A=in[9] 
Xi_0_43 INV_X1 $PINS ZN=n_0_38 A=in[8] 
Xi_0_42 INV_X1 $PINS ZN=n_0_37 A=in[5] 
Xi_0_41 INV_X1 $PINS ZN=n_0_36 A=in[4] 
Xi_0_40 INV_X1 $PINS ZN=n_0_35 A=in[1] 
Xi_0_39 NOR4_X1 $PINS ZN=n_0_34 A1=in[23] A2=in[22] A3=in[21] A4=in[20] 
Xi_0_38 INV_X1 $PINS ZN=n_0_33 A=n_0_34 
Xi_0_37 NOR4_X1 $PINS ZN=n_0_32 A1=in[19] A2=in[18] A3=in[17] A4=in[16] 
Xi_0_36 NAND2_X1 $PINS ZN=n_0_31 A1=n_0_34 A2=n_0_32 
Xi_0_35 NOR4_X1 $PINS ZN=n_0_30 A1=in[15] A2=in[14] A3=in[13] A4=in[12] 
Xi_0_34 NOR4_X1 $PINS ZN=n_0_29 A1=in[11] A2=in[10] A3=in[9] A4=in[8] 
Xi_0_33 NAND2_X1 $PINS ZN=n_0_28 A1=n_0_30 A2=n_0_29 
Xi_0_32 OR4_X1 $PINS ZN=n_0_27 A1=in[7] A2=in[6] A3=in[5] A4=in[4] 
Xi_0_31 NOR2_X1 $PINS ZN=n_0_26 A1=in[1] A2=in[0] 
Xi_0_30 NOR4_X1 $PINS ZN=n_0_25 A1=in[3] A2=in[2] A3=in[1] A4=in[0] 
Xi_0_29 AOI211_X2 $PINS ZN=out[4] A=n_0_31 B=n_0_28 C1=n_0_43 C2=n_0_25 
Xi_0_28 AOI21_X2 $PINS ZN=out[3] A=n_0_31 B1=n_0_30 B2=n_0_29 
Xi_0_27 OAI21_X1 $PINS ZN=n_0_24 A=n_0_29 B1=n_0_27 B2=n_0_25 
Xi_0_26 NAND2_X1 $PINS ZN=n_0_23 A1=n_0_24 A2=n_0_30 
Xi_0_25 AOI21_X2 $PINS ZN=out[2] A=n_0_33 B1=n_0_23 B2=n_0_32 
Xi_0_24 NOR3_X1 $PINS ZN=n_0_22 A1=in[3] A2=in[2] A3=n_0_26 
Xi_0_23 NOR3_X1 $PINS ZN=n_0_21 A1=in[5] A2=in[4] A3=n_0_22 
Xi_0_22 NOR3_X1 $PINS ZN=n_0_20 A1=in[7] A2=in[6] A3=n_0_21 
Xi_0_21 NOR3_X1 $PINS ZN=n_0_19 A1=in[9] A2=in[8] A3=n_0_20 
Xi_0_20 NOR3_X1 $PINS ZN=n_0_18 A1=in[11] A2=in[10] A3=n_0_19 
Xi_0_19 NOR3_X1 $PINS ZN=n_0_17 A1=in[13] A2=in[12] A3=n_0_18 
Xi_0_18 NOR3_X1 $PINS ZN=n_0_16 A1=in[15] A2=in[14] A3=n_0_17 
Xi_0_17 NOR3_X1 $PINS ZN=n_0_15 A1=in[17] A2=in[16] A3=n_0_16 
Xi_0_16 NOR3_X1 $PINS ZN=n_0_14 A1=in[19] A2=in[18] A3=n_0_15 
Xi_0_15 NOR3_X1 $PINS ZN=n_0_13 A1=in[21] A2=in[20] A3=n_0_14 
Xi_0_14 NOR3_X2 $PINS ZN=out[1] A1=in[23] A2=in[22] A3=n_0_13 
Xi_0_13 AOI21_X1 $PINS ZN=n_0_12 A=in[20] B1=n_0_42 B2=in[18] 
Xi_0_12 NOR2_X1 $PINS ZN=n_0_11 A1=in[21] A2=n_0_12 
Xi_0_11 NOR2_X1 $PINS ZN=n_0_10 A1=in[22] A2=n_0_11 
Xi_0_10 NOR4_X1 $PINS ZN=n_0_9 A1=in[23] A2=in[21] A3=in[19] A4=in[17] 
Xi_0_9 AOI21_X1 $PINS ZN=n_0_8 A=in[2] B1=n_0_35 B2=in[0] 
Xi_0_8 OAI21_X1 $PINS ZN=n_0_7 A=n_0_36 B1=in[3] B2=n_0_8 
Xi_0_7 AOI21_X1 $PINS ZN=n_0_6 A=in[6] B1=n_0_37 B2=n_0_7 
Xi_0_6 OAI21_X1 $PINS ZN=n_0_5 A=n_0_38 B1=in[7] B2=n_0_6 
Xi_0_5 AOI21_X1 $PINS ZN=n_0_4 A=in[10] B1=n_0_39 B2=n_0_5 
Xi_0_4 OAI21_X1 $PINS ZN=n_0_3 A=n_0_40 B1=in[11] B2=n_0_4 
Xi_0_3 AOI21_X1 $PINS ZN=n_0_2 A=in[14] B1=n_0_41 B2=n_0_3 
Xi_0_2 NOR2_X1 $PINS ZN=n_0_1 A1=in[15] A2=n_0_2 
Xi_0_1 OAI21_X1 $PINS ZN=n_0_0 A=n_0_9 B1=n_0_1 B2=in[16] 
Xi_0_0 OAI21_X1 $PINS ZN=out[0] A=n_0_0 B1=n_0_10 B2=in[23] 
.ENDS

.SUBCKT Multiplixer A[7] A[6] A[5] A[4] A[3] A[2] A[1] A[0] B[7] B[6] B[5] B[4] 
+ B[3] B[2] B[1] B[0] Sel Out[7] Out[6] Out[5] Out[4] Out[3] Out[2] Out[1] 
+ Out[0] 
Xi_0_7 MUX2_X1 $PINS Z=Out[7] A=A[7] B=B[7] S=Sel 
Xi_0_6 MUX2_X1 $PINS Z=Out[6] A=A[6] B=B[6] S=Sel 
Xi_0_5 MUX2_X1 $PINS Z=Out[5] A=A[5] B=B[5] S=Sel 
Xi_0_4 MUX2_X1 $PINS Z=Out[4] A=A[4] B=B[4] S=Sel 
Xi_0_3 MUX2_X1 $PINS Z=Out[3] A=A[3] B=B[3] S=Sel 
Xi_0_2 MUX2_X1 $PINS Z=Out[2] A=A[2] B=B[2] S=Sel 
Xi_0_1 MUX2_X1 $PINS Z=Out[1] A=A[1] B=B[1] S=Sel 
Xi_0_0 MUX2_X1 $PINS Z=Out[0] A=A[0] B=B[0] S=Sel 
.ENDS

.SUBCKT HalfAdder x y z cout 
Xi_0_1 AND2_X1 $PINS ZN=cout A1=x A2=y 
Xi_0_0 XOR2_X1 $PINS Z=z A=x B=y 
.ENDS

.SUBCKT HalfAdder__0_38 x y z cout 
Xi_0_1 AND2_X1 $PINS ZN=cout A1=x A2=y 
Xi_0_0 XOR2_X1 $PINS Z=z A=x B=y 
.ENDS

.SUBCKT HalfAdder__0_35 x y z cout 
Xi_0_1 AND2_X1 $PINS ZN=cout A1=x A2=y 
Xi_0_0 XOR2_X1 $PINS Z=z A=x B=y 
.ENDS

.SUBCKT HalfAdder__0_32 x y z cout 
Xi_0_1 AND2_X1 $PINS ZN=cout A1=x A2=y 
Xi_0_0 XOR2_X1 $PINS Z=z A=x B=y 
.ENDS

.SUBCKT CIN sin[3] sin[2] sin[1] sin[0] cin cprev sumout[3] sumout[2] sumout[1] 
+ sumout[0] carryout 
Xi_0_0 OR2_X1 $PINS ZN=carryout A1=cwire3 A2=cin 
XHA3 HalfAdder $PINS cout=cwire3 z=sumout[3] x=cwire2 y=sin[3] 
XHA2 HalfAdder__0_38 $PINS cout=cwire2 z=sumout[2] x=cwire1 y=sin[2] 
XHA1 HalfAdder__0_35 $PINS cout=cwire1 z=sumout[1] x=cwire0 y=sin[1] 
XHA0 HalfAdder__0_32 $PINS cout=cwire0 z=sumout[0] x=cprev y=sin[0] 
.ENDS

.SUBCKT HalfAdder__0_84 x y z cout 
Xi_0_1 AND2_X1 $PINS ZN=cout A1=x A2=y 
Xi_0_0 XOR2_X1 $PINS Z=z A=x B=y 
.ENDS

.SUBCKT HalfAdder__0_87 x y z cout 
Xi_0_1 AND2_X1 $PINS ZN=cout A1=x A2=y 
Xi_0_0 XOR2_X1 $PINS Z=z A=x B=y 
.ENDS

.SUBCKT HalfAdder__0_90 x y z cout 
Xi_0_1 AND2_X1 $PINS ZN=cout A1=x A2=y 
Xi_0_0 XOR2_X1 $PINS Z=z A=x B=y 
.ENDS

.SUBCKT HalfAdder__0_93 x y z cout 
Xi_0_1 AND2_X1 $PINS ZN=cout A1=x A2=y 
Xi_0_0 XOR2_X1 $PINS Z=z A=x B=y 
.ENDS

.SUBCKT CIN__0_94 sin[3] sin[2] sin[1] sin[0] cin cprev sumout[3] sumout[2] 
+ sumout[1] sumout[0] carryout 
Xi_0_0 OR2_X1 $PINS ZN=carryout A1=cwire3 A2=cin 
XHA3 HalfAdder__0_84 $PINS cout=cwire3 z=sumout[3] x=cwire2 y=sin[3] 
XHA2 HalfAdder__0_87 $PINS cout=cwire2 z=sumout[2] x=cwire1 y=sin[2] 
XHA1 HalfAdder__0_90 $PINS cout=cwire1 z=sumout[1] x=cwire0 y=sin[1] 
XHA0 HalfAdder__0_93 $PINS cout=cwire0 z=sumout[0] x=cprev y=sin[0] 
.ENDS

.SUBCKT HalfAdder__0_70 x y z cout 
Xi_0_1 AND2_X1 $PINS ZN=cout A1=x A2=y 
Xi_0_0 XOR2_X1 $PINS Z=z A=x B=y 
.ENDS

.SUBCKT HalfAdder__0_73 x y z cout 
Xi_0_1 AND2_X1 $PINS ZN=cout A1=x A2=y 
Xi_0_0 XOR2_X1 $PINS Z=z A=x B=y 
.ENDS

.SUBCKT HalfAdder__0_76 x y z cout 
Xi_0_1 AND2_X1 $PINS ZN=cout A1=x A2=y 
Xi_0_0 XOR2_X1 $PINS Z=z A=x B=y 
.ENDS

.SUBCKT HalfAdder__0_79 x y z cout 
Xi_0_1 AND2_X1 $PINS ZN=cout A1=x A2=y 
Xi_0_0 XOR2_X1 $PINS Z=z A=x B=y 
.ENDS

.SUBCKT CIN__0_80 sin[3] sin[2] sin[1] sin[0] cin cprev sumout[3] sumout[2] 
+ sumout[1] sumout[0] carryout 
Xi_0_0 OR2_X1 $PINS ZN=carryout A1=cwire3 A2=cin 
XHA3 HalfAdder__0_70 $PINS cout=cwire3 z=sumout[3] x=cwire2 y=sin[3] 
XHA2 HalfAdder__0_73 $PINS cout=cwire2 z=sumout[2] x=cwire1 y=sin[2] 
XHA1 HalfAdder__0_76 $PINS cout=cwire1 z=sumout[1] x=cwire0 y=sin[1] 
XHA0 HalfAdder__0_79 $PINS cout=cwire0 z=sumout[0] x=cprev y=sin[0] 
.ENDS

.SUBCKT HalfAdder__0_56 x y z cout 
Xi_0_1 AND2_X1 $PINS ZN=cout A1=x A2=y 
Xi_0_0 XOR2_X1 $PINS Z=z A=x B=y 
.ENDS

.SUBCKT HalfAdder__0_59 x y z cout 
Xi_0_1 AND2_X1 $PINS ZN=cout A1=x A2=y 
Xi_0_0 XOR2_X1 $PINS Z=z A=x B=y 
.ENDS

.SUBCKT HalfAdder__0_62 x y z cout 
Xi_0_1 AND2_X1 $PINS ZN=cout A1=x A2=y 
Xi_0_0 XOR2_X1 $PINS Z=z A=x B=y 
.ENDS

.SUBCKT HalfAdder__0_65 x y z cout 
Xi_0_1 AND2_X1 $PINS ZN=cout A1=x A2=y 
Xi_0_0 XOR2_X1 $PINS Z=z A=x B=y 
.ENDS

.SUBCKT CIN__0_66 sin[3] sin[2] sin[1] sin[0] cin cprev sumout[3] sumout[2] 
+ sumout[1] sumout[0] carryout 
Xi_0_0 OR2_X1 $PINS ZN=carryout A1=cwire3 A2=cin 
XHA3 HalfAdder__0_56 $PINS cout=cwire3 z=sumout[3] x=cwire2 y=sin[3] 
XHA2 HalfAdder__0_59 $PINS cout=cwire2 z=sumout[2] x=cwire1 y=sin[2] 
XHA1 HalfAdder__0_62 $PINS cout=cwire1 z=sumout[1] x=cwire0 y=sin[1] 
XHA0 HalfAdder__0_65 $PINS cout=cwire0 z=sumout[0] x=cprev y=sin[0] 
.ENDS

.SUBCKT HalfAdder__0_42 x y z cout 
Xi_0_1 AND2_X1 $PINS ZN=cout A1=x A2=y 
Xi_0_0 XOR2_X1 $PINS Z=z A=x B=y 
.ENDS

.SUBCKT HalfAdder__0_45 x y z cout 
Xi_0_1 AND2_X1 $PINS ZN=cout A1=x A2=y 
Xi_0_0 XOR2_X1 $PINS Z=z A=x B=y 
.ENDS

.SUBCKT HalfAdder__0_48 x y z cout 
Xi_0_1 AND2_X1 $PINS ZN=cout A1=x A2=y 
Xi_0_0 XOR2_X1 $PINS Z=z A=x B=y 
.ENDS

.SUBCKT HalfAdder__0_51 x y z cout 
Xi_0_1 AND2_X1 $PINS ZN=cout A1=x A2=y 
Xi_0_0 XOR2_X1 $PINS Z=z A=x B=y 
.ENDS

.SUBCKT CIN__0_52 sin[3] sin[2] sin[1] sin[0] cin cprev sumout[3] sumout[2] 
+ sumout[1] sumout[0] carryout 
Xi_0_0 OR2_X1 $PINS ZN=carryout A1=cwire3 A2=cin 
XHA3 HalfAdder__0_42 $PINS cout=cwire3 z=sumout[3] x=cwire2 y=sin[3] 
XHA2 HalfAdder__0_45 $PINS cout=cwire2 z=sumout[2] x=cwire1 y=sin[2] 
XHA1 HalfAdder__0_48 $PINS cout=cwire1 z=sumout[1] x=cwire0 y=sin[1] 
XHA0 HalfAdder__0_51 $PINS cout=cwire0 z=sumout[0] x=cprev y=sin[0] 
.ENDS

.SUBCKT FA in1 in2 cin sum cout 
Xi_0_3 INV_X1 $PINS ZN=cout A=n_0_0 
Xi_0_2 AOI22_X1 $PINS ZN=n_0_0 A1=w0 A2=cin B1=in1 B2=in2 
Xi_0_1 XOR2_X1 $PINS Z=sum A=cin B=w0 
Xi_0_0 XOR2_X1 $PINS Z=w0 A=in1 B=in2 
.ENDS

.SUBCKT FA__0_106 in1 in2 cin sum cout 
Xi_0_3 INV_X1 $PINS ZN=cout A=n_0_0 
Xi_0_2 AOI22_X1 $PINS ZN=n_0_0 A1=w0 A2=cin B1=in1 B2=in2 
Xi_0_1 XOR2_X1 $PINS Z=sum A=cin B=w0 
Xi_0_0 XOR2_X1 $PINS Z=w0 A=in1 B=in2 
.ENDS

.SUBCKT FA__0_102 in1 in2 cin sum cout 
Xi_0_3 INV_X1 $PINS ZN=cout A=n_0_0 
Xi_0_2 AOI22_X1 $PINS ZN=n_0_0 A1=w0 A2=cin B1=in1 B2=in2 
Xi_0_1 XOR2_X1 $PINS Z=sum A=cin B=w0 
Xi_0_0 XOR2_X1 $PINS Z=w0 A=in1 B=in2 
.ENDS

.SUBCKT FA__0_98 in1 in2 cin sum cout 
Xi_0_1 AND2_X1 $PINS ZN=cout A1=in2 A2=in1 
Xi_0_0 XOR2_X1 $PINS Z=sum A=in1 B=in2 
.ENDS

.SUBCKT RCA4bit in1[3] in1[2] in1[1] in1[0] in2[3] in2[2] in2[1] in2[0] cin 
+ sum[3] sum[2] sum[1] sum[0] cout 
Xgenblk1_3_full_adder_inst FA $PINS cout=cout sum=sum[3] cin=carries[3] 
+ in1=in1[3] in2=in2[3] 
Xgenblk1_2_full_adder_inst FA__0_106 $PINS cout=carries[3] sum=sum[2] 
+ cin=carries[2] in1=in1[2] in2=in2[2] 
Xgenblk1_1_full_adder_inst FA__0_102 $PINS cout=carries[2] sum=sum[1] 
+ cin=carries[1] in1=in1[1] in2=in2[1] 
Xgenblk1_0_full_adder_inst FA__0_98 $PINS cout=carries[1] sum=sum[0] in1=in1[0] 
+ in2=in2[0] 
.ENDS

.SUBCKT FA__0_178 in1 in2 cin sum cout 
Xi_0_3 INV_X1 $PINS ZN=cout A=n_0_0 
Xi_0_2 AOI22_X1 $PINS ZN=n_0_0 A1=w0 A2=cin B1=in1 B2=in2 
Xi_0_1 XOR2_X1 $PINS Z=sum A=cin B=w0 
Xi_0_0 XOR2_X1 $PINS Z=w0 A=in1 B=in2 
.ENDS

.SUBCKT FA__0_182 in1 in2 cin sum cout 
Xi_0_3 INV_X1 $PINS ZN=cout A=n_0_0 
Xi_0_2 AOI22_X1 $PINS ZN=n_0_0 A1=w0 A2=cin B1=in1 B2=in2 
Xi_0_1 XOR2_X1 $PINS Z=sum A=cin B=w0 
Xi_0_0 XOR2_X1 $PINS Z=w0 A=in1 B=in2 
.ENDS

.SUBCKT FA__0_186 in1 in2 cin sum cout 
Xi_0_3 INV_X1 $PINS ZN=cout A=n_0_0 
Xi_0_2 AOI22_X1 $PINS ZN=n_0_0 A1=w0 A2=cin B1=in1 B2=in2 
Xi_0_1 XOR2_X1 $PINS Z=sum A=cin B=w0 
Xi_0_0 XOR2_X1 $PINS Z=w0 A=in1 B=in2 
.ENDS

.SUBCKT FA__0_190 in1 in2 cin sum cout 
Xi_0_1 AND2_X1 $PINS ZN=cout A1=in2 A2=in1 
Xi_0_0 XOR2_X1 $PINS Z=sum A=in1 B=in2 
.ENDS

.SUBCKT RCA4bit__0_191 in1[3] in1[2] in1[1] in1[0] in2[3] in2[2] in2[1] in2[0] 
+ cin sum[3] sum[2] sum[1] sum[0] cout 
Xgenblk1_3_full_adder_inst FA__0_178 $PINS cout=cout sum=sum[3] cin=carries[3] 
+ in1=in1[3] in2=in2[3] 
Xgenblk1_2_full_adder_inst FA__0_182 $PINS cout=carries[3] sum=sum[2] 
+ cin=carries[2] in1=in1[2] in2=in2[2] 
Xgenblk1_1_full_adder_inst FA__0_186 $PINS cout=carries[2] sum=sum[1] 
+ cin=carries[1] in1=in1[1] in2=in2[1] 
Xgenblk1_0_full_adder_inst FA__0_190 $PINS cout=carries[1] sum=sum[0] 
+ in1=in1[0] in2=in2[0] 
.ENDS

.SUBCKT FA__0_161 in1 in2 cin sum cout 
Xi_0_3 INV_X1 $PINS ZN=cout A=n_0_0 
Xi_0_2 AOI22_X1 $PINS ZN=n_0_0 A1=w0 A2=cin B1=in1 B2=in2 
Xi_0_1 XOR2_X1 $PINS Z=sum A=cin B=w0 
Xi_0_0 XOR2_X1 $PINS Z=w0 A=in1 B=in2 
.ENDS

.SUBCKT FA__0_165 in1 in2 cin sum cout 
Xi_0_3 INV_X1 $PINS ZN=cout A=n_0_0 
Xi_0_2 AOI22_X1 $PINS ZN=n_0_0 A1=w0 A2=cin B1=in1 B2=in2 
Xi_0_1 XOR2_X1 $PINS Z=sum A=cin B=w0 
Xi_0_0 XOR2_X1 $PINS Z=w0 A=in1 B=in2 
.ENDS

.SUBCKT FA__0_169 in1 in2 cin sum cout 
Xi_0_3 INV_X1 $PINS ZN=cout A=n_0_0 
Xi_0_2 AOI22_X1 $PINS ZN=n_0_0 A1=w0 A2=cin B1=in1 B2=in2 
Xi_0_1 XOR2_X1 $PINS Z=sum A=cin B=w0 
Xi_0_0 XOR2_X1 $PINS Z=w0 A=in1 B=in2 
.ENDS

.SUBCKT FA__0_173 in1 in2 cin sum cout 
Xi_0_1 AND2_X1 $PINS ZN=cout A1=in2 A2=in1 
Xi_0_0 XOR2_X1 $PINS Z=sum A=in1 B=in2 
.ENDS

.SUBCKT RCA4bit__0_174 in1[3] in1[2] in1[1] in1[0] in2[3] in2[2] in2[1] in2[0] 
+ cin sum[3] sum[2] sum[1] sum[0] cout 
Xgenblk1_3_full_adder_inst FA__0_161 $PINS cout=cout sum=sum[3] cin=carries[3] 
+ in1=in1[3] in2=in2[3] 
Xgenblk1_2_full_adder_inst FA__0_165 $PINS cout=carries[3] sum=sum[2] 
+ cin=carries[2] in1=in1[2] in2=in2[2] 
Xgenblk1_1_full_adder_inst FA__0_169 $PINS cout=carries[2] sum=sum[1] 
+ cin=carries[1] in1=in1[1] in2=in2[1] 
Xgenblk1_0_full_adder_inst FA__0_173 $PINS cout=carries[1] sum=sum[0] 
+ in1=in1[0] in2=in2[0] 
.ENDS

.SUBCKT FA__0_144 in1 in2 cin sum cout 
Xi_0_3 INV_X1 $PINS ZN=cout A=n_0_0 
Xi_0_2 AOI22_X1 $PINS ZN=n_0_0 A1=w0 A2=cin B1=in1 B2=in2 
Xi_0_1 XOR2_X1 $PINS Z=sum A=cin B=w0 
Xi_0_0 XOR2_X1 $PINS Z=w0 A=in1 B=in2 
.ENDS

.SUBCKT FA__0_148 in1 in2 cin sum cout 
Xi_0_3 INV_X1 $PINS ZN=cout A=n_0_0 
Xi_0_2 AOI22_X1 $PINS ZN=n_0_0 A1=w0 A2=cin B1=in1 B2=in2 
Xi_0_1 XOR2_X1 $PINS Z=sum A=cin B=w0 
Xi_0_0 XOR2_X1 $PINS Z=w0 A=in1 B=in2 
.ENDS

.SUBCKT FA__0_152 in1 in2 cin sum cout 
Xi_0_3 INV_X1 $PINS ZN=cout A=n_0_0 
Xi_0_2 AOI22_X1 $PINS ZN=n_0_0 A1=w0 A2=cin B1=in1 B2=in2 
Xi_0_1 XOR2_X1 $PINS Z=sum A=cin B=w0 
Xi_0_0 XOR2_X1 $PINS Z=w0 A=in1 B=in2 
.ENDS

.SUBCKT FA__0_156 in1 in2 cin sum cout 
Xi_0_1 AND2_X1 $PINS ZN=cout A1=in2 A2=in1 
Xi_0_0 XOR2_X1 $PINS Z=sum A=in1 B=in2 
.ENDS

.SUBCKT RCA4bit__0_157 in1[3] in1[2] in1[1] in1[0] in2[3] in2[2] in2[1] in2[0] 
+ cin sum[3] sum[2] sum[1] sum[0] cout 
Xgenblk1_3_full_adder_inst FA__0_144 $PINS cout=cout sum=sum[3] cin=carries[3] 
+ in1=in1[3] in2=in2[3] 
Xgenblk1_2_full_adder_inst FA__0_148 $PINS cout=carries[3] sum=sum[2] 
+ cin=carries[2] in1=in1[2] in2=in2[2] 
Xgenblk1_1_full_adder_inst FA__0_152 $PINS cout=carries[2] sum=sum[1] 
+ cin=carries[1] in1=in1[1] in2=in2[1] 
Xgenblk1_0_full_adder_inst FA__0_156 $PINS cout=carries[1] sum=sum[0] 
+ in1=in1[0] in2=in2[0] 
.ENDS

.SUBCKT FA__0_127 in1 in2 cin sum cout 
Xi_0_3 INV_X1 $PINS ZN=cout A=n_0_0 
Xi_0_2 AOI22_X1 $PINS ZN=n_0_0 A1=w0 A2=cin B1=in1 B2=in2 
Xi_0_1 XOR2_X1 $PINS Z=sum A=cin B=w0 
Xi_0_0 XOR2_X1 $PINS Z=w0 A=in1 B=in2 
.ENDS

.SUBCKT FA__0_131 in1 in2 cin sum cout 
Xi_0_3 INV_X1 $PINS ZN=cout A=n_0_0 
Xi_0_2 AOI22_X1 $PINS ZN=n_0_0 A1=w0 A2=cin B1=in1 B2=in2 
Xi_0_1 XOR2_X1 $PINS Z=sum A=cin B=w0 
Xi_0_0 XOR2_X1 $PINS Z=w0 A=in1 B=in2 
.ENDS

.SUBCKT FA__0_135 in1 in2 cin sum cout 
Xi_0_3 INV_X1 $PINS ZN=cout A=n_0_0 
Xi_0_2 AOI22_X1 $PINS ZN=n_0_0 A1=w0 A2=cin B1=in1 B2=in2 
Xi_0_1 XOR2_X1 $PINS Z=sum A=cin B=w0 
Xi_0_0 XOR2_X1 $PINS Z=w0 A=in1 B=in2 
.ENDS

.SUBCKT FA__0_139 in1 in2 cin sum cout 
Xi_0_1 AND2_X1 $PINS ZN=cout A1=in2 A2=in1 
Xi_0_0 XOR2_X1 $PINS Z=sum A=in1 B=in2 
.ENDS

.SUBCKT RCA4bit__0_140 in1[3] in1[2] in1[1] in1[0] in2[3] in2[2] in2[1] in2[0] 
+ cin sum[3] sum[2] sum[1] sum[0] cout 
Xgenblk1_3_full_adder_inst FA__0_127 $PINS cout=cout sum=sum[3] cin=carries[3] 
+ in1=in1[3] in2=in2[3] 
Xgenblk1_2_full_adder_inst FA__0_131 $PINS cout=carries[3] sum=sum[2] 
+ cin=carries[2] in1=in1[2] in2=in2[2] 
Xgenblk1_1_full_adder_inst FA__0_135 $PINS cout=carries[2] sum=sum[1] 
+ cin=carries[1] in1=in1[1] in2=in2[1] 
Xgenblk1_0_full_adder_inst FA__0_139 $PINS cout=carries[1] sum=sum[0] 
+ in1=in1[0] in2=in2[0] 
.ENDS

.SUBCKT FA__0_110 in1 in2 cin sum cout 
Xi_0_3 INV_X1 $PINS ZN=cout A=n_0_0 
Xi_0_2 AOI22_X1 $PINS ZN=n_0_0 A1=w0 A2=cin B1=in1 B2=in2 
Xi_0_1 XOR2_X1 $PINS Z=sum A=cin B=w0 
Xi_0_0 XOR2_X1 $PINS Z=w0 A=in1 B=in2 
.ENDS

.SUBCKT FA__0_114 in1 in2 cin sum cout 
Xi_0_3 INV_X1 $PINS ZN=cout A=n_0_0 
Xi_0_2 AOI22_X1 $PINS ZN=n_0_0 A1=w0 A2=cin B1=in1 B2=in2 
Xi_0_1 XOR2_X1 $PINS Z=sum A=cin B=w0 
Xi_0_0 XOR2_X1 $PINS Z=w0 A=in1 B=in2 
.ENDS

.SUBCKT FA__0_118 in1 in2 cin sum cout 
Xi_0_3 INV_X1 $PINS ZN=cout A=n_0_0 
Xi_0_2 AOI22_X1 $PINS ZN=n_0_0 A1=w0 A2=cin B1=in1 B2=in2 
Xi_0_1 XOR2_X1 $PINS Z=sum A=cin B=w0 
Xi_0_0 XOR2_X1 $PINS Z=w0 A=in1 B=in2 
.ENDS

.SUBCKT FA__0_122 in1 in2 cin sum cout 
Xi_0_1 AND2_X1 $PINS ZN=cout A1=in2 A2=in1 
Xi_0_0 XOR2_X1 $PINS Z=sum A=in1 B=in2 
.ENDS

.SUBCKT RCA4bit__0_123 in1[3] in1[2] in1[1] in1[0] in2[3] in2[2] in2[1] in2[0] 
+ cin sum[3] sum[2] sum[1] sum[0] cout 
Xgenblk1_3_full_adder_inst FA__0_110 $PINS cout=cout sum=sum[3] cin=carries[3] 
+ in1=in1[3] in2=in2[3] 
Xgenblk1_2_full_adder_inst FA__0_114 $PINS cout=carries[3] sum=sum[2] 
+ cin=carries[2] in1=in1[2] in2=in2[2] 
Xgenblk1_1_full_adder_inst FA__0_118 $PINS cout=carries[2] sum=sum[1] 
+ cin=carries[1] in1=in1[1] in2=in2[1] 
Xgenblk1_0_full_adder_inst FA__0_122 $PINS cout=carries[1] sum=sum[0] 
+ in1=in1[0] in2=in2[0] 
.ENDS

.SUBCKT CIA_24bit in1[23] in1[22] in1[21] in1[20] in1[19] in1[18] in1[17] 
+ in1[16] in1[15] in1[14] in1[13] in1[12] in1[11] in1[10] in1[9] in1[8] in1[7] 
+ in1[6] in1[5] in1[4] in1[3] in1[2] in1[1] in1[0] in2[23] in2[22] in2[21] 
+ in2[20] in2[19] in2[18] in2[17] in2[16] in2[15] in2[14] in2[13] in2[12] 
+ in2[11] in2[10] in2[9] in2[8] in2[7] in2[6] in2[5] in2[4] in2[3] in2[2] 
+ in2[1] in2[0] sum[23] sum[22] sum[21] sum[20] sum[19] sum[18] sum[17] sum[16] 
+ sum[15] sum[14] sum[13] sum[12] sum[11] sum[10] sum[9] sum[8] sum[7] sum[6] 
+ sum[5] sum[4] sum[3] sum[2] sum[1] sum[0] carry 
XCIN4_5 CIN $PINS carryout=carry sumout[3]=sum[23] sumout[2]=sum[22] 
+ sumout[1]=sum[21] sumout[0]=sum[20] cin=carrywire[5] cprev=n_0 
+ sin[3]=sumwire5[3] sin[2]=sumwire5[2] sin[1]=sumwire5[1] sin[0]=sumwire5[0] 
XCIN0_1 CIN__0_94 $PINS carryout=n_3 sumout[3]=sum[7] sumout[2]=sum[6] 
+ sumout[1]=sum[5] sumout[0]=sum[4] cin=carrywire[1] cprev=carrywire[0] 
+ sin[3]=sumwire1[3] sin[2]=sumwire1[2] sin[1]=sumwire1[1] sin[0]=sumwire1[0] 
XCIN1_2 CIN__0_80 $PINS carryout=n_2 sumout[3]=sum[11] sumout[2]=sum[10] 
+ sumout[1]=sum[9] sumout[0]=sum[8] cin=carrywire[2] cprev=n_3 sin[3]=sumwire2[3] 
+ sin[2]=sumwire2[2] sin[1]=sumwire2[1] sin[0]=sumwire2[0] 
XCIN2_3 CIN__0_66 $PINS carryout=n_1 sumout[3]=sum[15] sumout[2]=sum[14] 
+ sumout[1]=sum[13] sumout[0]=sum[12] cin=carrywire[3] cprev=n_2 
+ sin[3]=sumwire3[3] sin[2]=sumwire3[2] sin[1]=sumwire3[1] sin[0]=sumwire3[0] 
XCIN3_4 CIN__0_52 $PINS carryout=n_0 sumout[3]=sum[19] sumout[2]=sum[18] 
+ sumout[1]=sum[17] sumout[0]=sum[16] cin=carrywire[4] cprev=n_1 
+ sin[3]=sumwire4[3] sin[2]=sumwire4[2] sin[1]=sumwire4[1] sin[0]=sumwire4[0] 
XRCA0 RCA4bit $PINS cout=carrywire[0] sum[3]=sum[3] sum[2]=sum[2] sum[1]=sum[1] 
+ sum[0]=sum[0] in1[3]=in1[3] in1[2]=in1[2] in1[1]=in1[1] in1[0]=in1[0] 
+ in2[3]=in2[3] in2[2]=in2[2] in2[1]=in2[1] in2[0]=in2[0] 
XRCA1 RCA4bit__0_191 $PINS cout=carrywire[1] sum[3]=sumwire1[3] 
+ sum[2]=sumwire1[2] sum[1]=sumwire1[1] sum[0]=sumwire1[0] in1[3]=in1[7] 
+ in1[2]=in1[6] in1[1]=in1[5] in1[0]=in1[4] in2[3]=in2[7] in2[2]=in2[6] 
+ in2[1]=in2[5] in2[0]=in2[4] 
XRCA2 RCA4bit__0_174 $PINS cout=carrywire[2] sum[3]=sumwire2[3] 
+ sum[2]=sumwire2[2] sum[1]=sumwire2[1] sum[0]=sumwire2[0] in1[3]=in1[11] 
+ in1[2]=in1[10] in1[1]=in1[9] in1[0]=in1[8] in2[3]=in2[11] in2[2]=in2[10] 
+ in2[1]=in2[9] in2[0]=in2[8] 
XRCA3 RCA4bit__0_157 $PINS cout=carrywire[3] sum[3]=sumwire3[3] 
+ sum[2]=sumwire3[2] sum[1]=sumwire3[1] sum[0]=sumwire3[0] in1[3]=in1[15] 
+ in1[2]=in1[14] in1[1]=in1[13] in1[0]=in1[12] in2[3]=in2[15] in2[2]=in2[14] 
+ in2[1]=in2[13] in2[0]=in2[12] 
XRCA4 RCA4bit__0_140 $PINS cout=carrywire[4] sum[3]=sumwire4[3] 
+ sum[2]=sumwire4[2] sum[1]=sumwire4[1] sum[0]=sumwire4[0] in1[3]=in1[19] 
+ in1[2]=in1[18] in1[1]=in1[17] in1[0]=in1[16] in2[3]=in2[19] in2[2]=in2[18] 
+ in2[1]=in2[17] in2[0]=in2[16] 
XRCA5 RCA4bit__0_123 $PINS cout=carrywire[5] sum[3]=sumwire5[3] 
+ sum[2]=sumwire5[2] sum[1]=sumwire5[1] sum[0]=sumwire5[0] in1[3]=in1[23] 
+ in1[2]=in1[22] in1[1]=in1[21] in1[0]=in1[20] in2[3]=in2[23] in2[2]=in2[22] 
+ in2[1]=in2[21] in2[0]=in2[20] 
.ENDS

.SUBCKT Multiplixer__parameterized0 A[24] A[23] A[22] A[21] A[20] A[19] A[18] 
+ A[17] A[16] A[15] A[14] A[13] A[12] A[11] A[10] A[9] A[8] A[7] A[6] A[5] A[4] 
+ A[3] A[2] A[1] A[0] B[24] B[23] B[22] B[21] B[20] B[19] B[18] B[17] B[16] 
+ B[15] B[14] B[13] B[12] B[11] B[10] B[9] B[8] B[7] B[6] B[5] B[4] B[3] B[2] 